Version 4
SHEET 1 1364 772
WIRE -464 -256 -464 -336
WIRE -432 -256 -464 -256
WIRE -432 -240 -432 -256
WIRE -144 336 -224 336
WIRE -224 352 -224 336
WIRE -144 400 -144 336
WIRE -112 400 -144 400
WIRE -224 432 -224 416
WIRE -112 432 -224 432
WIRE 288 432 96 432
WIRE 288 448 288 432
WIRE -288 464 -384 464
WIRE -112 464 -224 464
WIRE 880 480 816 480
WIRE -112 496 -144 496
WIRE 240 496 96 496
WIRE -144 528 -144 496
WIRE -112 528 -144 528
WIRE 192 528 96 528
WIRE -112 560 -224 560
WIRE 240 560 240 496
WIRE 288 560 288 528
WIRE 288 560 240 560
WIRE 288 576 288 560
WIRE 1120 576 1088 576
WIRE 1248 576 1200 576
WIRE 1344 576 1312 576
WIRE -224 592 -224 560
WIRE -112 592 -144 592
WIRE 144 592 96 592
WIRE 192 592 192 528
WIRE 1344 592 1344 576
WIRE 144 624 144 592
WIRE 144 624 96 624
WIRE -224 736 -224 672
WIRE 144 736 144 624
WIRE 144 736 -224 736
WIRE 192 736 192 672
WIRE 192 736 144 736
WIRE 288 736 288 640
WIRE 288 736 192 736
WIRE 144 752 144 736
FLAG 224 -224 0
FLAG 224 -304 Vff
FLAG -112 -224 0
FLAG -112 -304 bs
FLAG -432 -240 0
FLAG -464 -416 Vdd
FLAG 96 400 Vdd
FLAG -384 464 Vff
FLAG 144 752 0
FLAG 816 480 Vff
FLAG 1344 592 0
SYMBOL CD4046Bg 0 544 R0
SYMATTR InstName U1
SYMBOL bv 224 -320 R0
SYMATTR InstName B1
SYMATTR Value V=0.5*cos(2*pi*10000*time + 5*sin(2*pi*400*time))
SYMBOL voltage -112 -320 R0
WINDOW 123 0 0 Left 0
WINDOW 39 0 0 Left 0
SYMATTR InstName V1
SYMATTR Value PWL file=bit_stream.txt
SYMBOL voltage -464 -432 R0
WINDOW 123 0 0 Left 0
WINDOW 39 0 0 Left 0
SYMATTR InstName V3
SYMATTR Value 5
SYMBOL cap -224 448 R90
WINDOW 0 0 32 VBottom 2
WINDOW 3 32 32 VTop 2
SYMATTR InstName C2
SYMATTR Value 470n
SYMBOL cap -240 352 R0
SYMATTR InstName C1
SYMATTR Value 1.5n
SYMBOL res -240 576 R0
SYMATTR InstName R1
SYMATTR Value 84k
SYMBOL res 176 576 R0
SYMATTR InstName R2
SYMATTR Value 100k
SYMBOL res 272 432 R0
SYMATTR InstName R3
SYMATTR Value 100k
SYMBOL cap 272 576 R0
SYMATTR InstName C3
SYMATTR Value 100n
SYMBOL CD4046Bg 992 560 R0
SYMATTR InstName U2
SYMBOL res 1216 560 R90
WINDOW 0 0 56 VBottom 2
WINDOW 3 32 56 VTop 2
SYMATTR InstName R4
SYMATTR Value 150
SYMBOL cap 1312 560 R90
WINDOW 0 0 32 VBottom 2
WINDOW 3 32 32 VTop 2
SYMATTR InstName C4
SYMATTR Value 470n
TEXT 24 -128 Left 2 !.tran 10m
TEXT 24 -152 Left 2 !.inc definitions.txt
