Version 4
SHEET 1 1140 680
WIRE 704 -16 656 -16
WIRE 656 0 656 -16
WIRE -48 32 -96 32
WIRE 704 48 704 -16
WIRE 752 48 704 48
WIRE 992 48 992 16
WIRE 992 48 960 48
WIRE -48 64 -48 32
WIRE 16 64 -48 64
WIRE 288 64 288 32
WIRE 288 64 224 64
WIRE 288 80 288 64
WIRE 656 80 656 64
WIRE 752 80 656 80
WIRE 16 96 -96 96
WIRE 752 112 720 112
WIRE 16 128 -160 128
WIRE 496 144 464 144
WIRE 752 144 576 144
WIRE 16 160 -48 160
WIRE 464 176 464 144
WIRE 752 176 464 176
WIRE 1072 176 960 176
WIRE 576 208 528 208
WIRE 752 208 656 208
WIRE 1072 208 1072 176
WIRE 256 224 224 224
WIRE 528 240 528 208
WIRE 576 240 528 240
WIRE 752 240 656 240
WIRE 256 256 224 256
WIRE 992 272 960 272
WIRE 256 288 224 288
WIRE 528 368 528 240
WIRE 752 368 528 368
WIRE 992 368 992 272
WIRE 992 368 752 368
WIRE 1072 368 992 368
WIRE 752 384 752 368
FLAG -96 -224 0
FLAG 64 -224 0
FLAG 64 -304 Vff
FLAG -96 -304 Vdd
FLAG 288 32 Vdd
FLAG -48 160 Yfm
FLAG -160 128 Vff
FLAG -288 144 Yfm
FLAG 752 384 0
FLAG 720 112 Yfm
FLAG 992 16 Vdd
SYMBOL CD4046Bg 128 208 R0
SYMATTR InstName U1
SYMBOL bv 64 -320 R0
SYMATTR InstName B1
SYMATTR Value V=cos(2*pi*13500*time + 5*sin(2*pi*1350*time))
SYMBOL voltage -96 -320 R0
WINDOW 123 0 0 Left 0
WINDOW 39 0 0 Left 0
SYMATTR InstName V1
SYMATTR Value 1.5
SYMBOL cap -112 32 R0
SYMATTR InstName C1
SYMATTR Value 10n
SYMBOL CD4046Bg 864 192 R0
SYMATTR InstName U2
SYMBOL res 1056 192 R0
SYMATTR InstName R1
SYMATTR Value 10k
SYMBOL res 672 192 R90
WINDOW 0 0 56 VBottom 2
WINDOW 3 -55 53 VTop 2
SYMATTR InstName R2
SYMATTR Value 8.2k
SYMBOL res 672 224 R90
WINDOW 0 83 55 VBottom 2
WINDOW 3 32 56 VTop 2
SYMATTR InstName R3
SYMATTR Value 10k
SYMBOL cap 640 0 R0
SYMATTR InstName C2
SYMATTR Value 1.5n
SYMBOL res 592 128 R90
WINDOW 0 0 56 VBottom 2
WINDOW 3 32 56 VTop 2
SYMATTR InstName R4
SYMATTR Value 1k
TEXT -136 -128 Left 2 !.tran 10m
TEXT -136 -152 Left 2 !.inc definitions.txt
