Version 4
SHEET 1 880 680
WIRE 48 16 0 16
WIRE 48 48 48 16
WIRE 112 48 48 48
WIRE 384 48 384 16
WIRE 384 48 320 48
WIRE 384 64 384 48
WIRE 112 80 0 80
WIRE 112 144 48 144
WIRE 384 144 320 144
WIRE 448 144 384 144
WIRE 576 144 512 144
WIRE -224 208 -256 208
WIRE -80 208 -144 208
WIRE 112 208 0 208
WIRE 352 240 320 240
WIRE 384 256 384 144
WIRE 352 272 352 240
WIRE 352 272 320 272
WIRE -256 368 -256 208
WIRE 352 368 352 272
WIRE 352 368 -256 368
WIRE 384 368 384 336
WIRE 384 368 352 368
WIRE -256 384 -256 368
FLAG 0 -240 0
FLAG 160 -240 0
FLAG 160 -320 Vff
FLAG 0 -320 Vdd
FLAG -256 384 0
FLAG 384 16 Vdd
FLAG 576 144 Vff
SYMBOL CD4046Bg 224 192 R0
SYMATTR InstName U1
SYMBOL bv 160 -336 R0
SYMATTR InstName B1
SYMATTR Value V=cos(2*pi*13500*time + 5*sin(2*pi*1350*time))
SYMBOL voltage 0 -336 R0
WINDOW 123 0 0 Left 0
WINDOW 39 0 0 Left 0
SYMATTR InstName V1
SYMATTR Value 1.5
SYMBOL cap -16 16 R0
SYMATTR InstName C1
SYMATTR Value 1.5n
SYMBOL res 16 192 R90
WINDOW 0 0 56 VBottom 2
WINDOW 3 32 56 VTop 2
SYMATTR InstName R1
SYMATTR Value 8.2k
SYMBOL res -128 192 R90
WINDOW 0 0 56 VBottom 2
WINDOW 3 32 56 VTop 2
SYMATTR InstName R2
SYMATTR Value 10k
SYMBOL res 368 48 R0
SYMATTR InstName R3
SYMATTR Value 4.7k
SYMBOL res 368 240 R0
SYMATTR InstName R4
SYMATTR Value 10k
SYMBOL cap 512 128 R90
WINDOW 0 0 32 VBottom 2
WINDOW 3 32 32 VTop 2
SYMATTR InstName C2
SYMATTR Value 10”
TEXT -40 -144 Left 2 !.tran 10m
TEXT -40 -168 Left 2 !.inc definitions.txt
