Version 4
SHEET 1 880 680
WIRE -512 -16 -512 -96
WIRE -480 -16 -512 -16
WIRE -480 0 -480 -16
WIRE 112 464 48 464
WIRE 352 560 320 560
WIRE 480 560 432 560
WIRE 576 560 544 560
WIRE 576 576 576 560
FLAG 176 16 0
FLAG 176 -64 Vff
FLAG -160 16 0
FLAG -160 -64 bs
FLAG -480 0 0
FLAG -512 -176 Vdd
FLAG 48 464 Vff
FLAG 576 576 0
SYMBOL bv 176 -80 R0
SYMATTR InstName B1
SYMATTR Value V=0.5*cos(2*pi*10000*time + 5*sin(2*pi*400*time))
SYMBOL voltage -160 -80 R0
WINDOW 123 0 0 Left 0
WINDOW 39 0 0 Left 0
SYMATTR InstName V1
SYMATTR Value PWL file=bit_stream.txt
SYMBOL voltage -512 -192 R0
WINDOW 123 0 0 Left 0
WINDOW 39 0 0 Left 0
SYMATTR InstName V2
SYMATTR Value 5
SYMBOL CD4046Bg 224 544 R0
SYMATTR InstName U1
SYMBOL res 448 544 R90
WINDOW 0 0 56 VBottom 2
WINDOW 3 32 56 VTop 2
SYMATTR InstName R1
SYMATTR Value 150
SYMBOL cap 544 544 R90
WINDOW 0 0 32 VBottom 2
WINDOW 3 32 32 VTop 2
SYMATTR InstName C1
SYMATTR Value 470n
TEXT -24 112 Left 2 !.tran 10m
TEXT -24 88 Left 2 !.inc definitions.txt
