Version 4
SHEET 1 2644 680
WIRE -320 -144 -320 -224
WIRE -288 -144 -320 -144
WIRE -288 -128 -288 -144
WIRE -320 -64 -320 -144
WIRE 48 32 0 32
WIRE 48 64 48 32
WIRE 112 64 48 64
WIRE 384 64 384 32
WIRE 384 64 320 64
WIRE 384 80 384 64
WIRE 112 96 0 96
WIRE 112 160 80 160
WIRE 384 160 320 160
WIRE 448 160 384 160
WIRE 576 160 512 160
WIRE 944 176 816 176
WIRE 1152 176 1008 176
WIRE -224 224 -256 224
WIRE -80 224 -144 224
WIRE 112 224 0 224
WIRE 352 224 320 224
WIRE 352 256 320 256
WIRE 384 272 384 160
WIRE 352 288 352 256
WIRE 352 288 320 288
WIRE 704 304 672 304
WIRE 816 304 816 176
WIRE 816 304 784 304
WIRE 848 304 816 304
WIRE 960 304 928 304
WIRE 992 304 960 304
WIRE 1152 320 1152 176
WIRE 1152 320 1056 320
WIRE 1216 320 1152 320
WIRE 1328 320 1296 320
WIRE 1392 320 1328 320
WIRE 1328 336 1328 320
WIRE -256 384 -256 224
WIRE 352 384 352 288
WIRE 352 384 -256 384
WIRE 384 384 384 352
WIRE 384 384 352 384
WIRE -256 400 -256 384
WIRE 960 416 960 304
WIRE 960 528 960 480
FLAG 160 -224 0
FLAG 160 -304 Vff
FLAG -256 400 0
FLAG 384 32 Vdd
FLAG -176 -224 0
FLAG -176 -304 bs
FLAG -288 -128 0
FLAG -320 -304 Vdd
FLAG -320 16 Vss
FLAG 80 160 Yfm
FLAG 1024 288 Vss
FLAG 1024 352 Vdd
FLAG 960 528 0
FLAG 992 336 0
FLAG 672 304 Yfm
FLAG 1328 400 0
FLAG 1392 320 out
FLAG 864 -208 0
FLAG 864 -288 sine
FLAG 576 160 sine
SYMBOL CD4046Bg 224 208 R0
SYMATTR InstName U1
SYMBOL bv 160 -320 R0
SYMATTR InstName B1
SYMATTR Value V=cos(2*pi*13500*time + 5*sin(2*pi*1350*time))
SYMBOL cap -16 32 R0
SYMATTR InstName C1
SYMATTR Value 1.5n
SYMBOL res 16 208 R90
WINDOW 0 0 56 VBottom 2
WINDOW 3 32 56 VTop 2
SYMATTR InstName R1
SYMATTR Value 4.7k
SYMBOL res -128 208 R90
WINDOW 0 0 56 VBottom 2
WINDOW 3 32 56 VTop 2
SYMATTR InstName R2
SYMATTR Value 10k
SYMBOL res 368 64 R0
SYMATTR InstName R3
SYMATTR Value 4.7k
SYMBOL res 368 256 R0
SYMATTR InstName R4
SYMATTR Value 10k
SYMBOL cap 512 144 R90
WINDOW 0 0 32 VBottom 2
WINDOW 3 32 32 VTop 2
SYMATTR InstName C2
SYMATTR Value 10µ
SYMBOL voltage -176 -320 R0
WINDOW 123 0 0 Left 0
WINDOW 39 0 0 Left 0
SYMATTR InstName V2
SYMATTR Value PWL file=bit_stream.txt
SYMBOL voltage -320 -80 R0
WINDOW 123 0 0 Left 0
WINDOW 39 0 0 Left 0
SYMATTR InstName V1
SYMATTR Value 5
SYMBOL voltage -320 -320 R0
WINDOW 123 0 0 Left 0
WINDOW 39 0 0 Left 0
SYMATTR InstName V3
SYMATTR Value 5
SYMBOL OpAmps\\OP07 1024 384 M180
SYMATTR InstName U2
SYMBOL res 944 288 R90
WINDOW 0 0 56 VBottom 2
WINDOW 3 32 56 VTop 2
SYMATTR InstName R5
SYMATTR Value 7.6k
SYMBOL res 800 288 R90
WINDOW 0 0 56 VBottom 2
WINDOW 3 32 56 VTop 2
SYMATTR InstName R6
SYMATTR Value 7.6k
SYMBOL cap 944 416 R0
SYMATTR InstName C3
SYMATTR Value 10n
SYMBOL cap 1008 160 R90
WINDOW 0 0 32 VBottom 2
WINDOW 3 32 32 VTop 2
SYMATTR InstName C4
SYMATTR Value 10n
SYMBOL res 1312 304 R90
WINDOW 0 0 56 VBottom 2
WINDOW 3 32 56 VTop 2
SYMATTR InstName R7
SYMATTR Value 7.6k
SYMBOL cap 1312 336 R0
SYMATTR InstName C5
SYMATTR Value 10n
SYMBOL voltage 864 -304 R0
WINDOW 123 0 0 Left 0
WINDOW 39 0 0 Left 0
SYMATTR InstName V4
SYMATTR Value SINE(0 1 1350)
TEXT -40 -128 Left 2 !.tran 1m
TEXT -40 -152 Left 2 !.inc definitions.txt
