Version 4
SHEET 1 880 872
WIRE -80 528 -128 528
WIRE -80 560 -80 528
WIRE -32 560 -80 560
WIRE -32 592 -128 592
WIRE -32 624 -80 624
WIRE -208 720 -224 720
WIRE -32 720 -128 720
WIRE -224 736 -224 720
FLAG -112 48 0
FLAG 48 48 0
FLAG 48 -32 Vff
FLAG -112 -32 Vdd
FLAG 176 560 Vdd
FLAG -224 736 0
FLAG 176 752 0
FLAG 176 784 0
FLAG 176 656 Vff
SYMBOL CD4046Bg 80 704 R0
SYMATTR InstName U2
SYMBOL bv 48 -48 R0
SYMATTR InstName B1
SYMATTR Value V=5*cos(2*pi*13500*time + 5*sin(2*pi*1350*time))
SYMBOL voltage -112 -48 R0
WINDOW 123 0 0 Left 0
WINDOW 39 0 0 Left 0
SYMATTR InstName V1
SYMATTR Value 5
SYMBOL cap -144 528 R0
SYMATTR InstName C1
SYMATTR Value 47n
SYMBOL res -112 704 R90
WINDOW 0 0 56 VBottom 2
WINDOW 3 32 56 VTop 2
SYMATTR InstName R1
SYMATTR Value 100k
TEXT -168 160 Left 2 !.tran 10m
TEXT -152 120 Left 2 !.inc definitions.txt
